2024_89_CemigReconfigurationCases/1_AlimsCemig/PRRU09/PRRU09SegmentosMT.dss
new line.TR12732646 bus1=BMT6914879B.1.2.3,bus2=BMT170793690.1.2.3,Phases=3,Linecode=CABA06_3_3,Length=0.040328000,Units=km
new line.TR12732647 bus1=BMT170793690.1.2.3,bus2=BMT9339806B.1.2.3,Phases=3,Linecode=CABA06_3_3,Length=0.038616000,Units=km
new line.TR12732648 bus1=BMT9339806B.1.2.3,bus2=BMT9339807B.1.2.3,Phases=3,Linecode=CABA06_3_3,Length=0.038616000,Units=km
new line.TR12732649 bus1=BMT9339807B.1.2.3,bus2=BMT9339809B.1.2.3,Phases=3,Linecode=CABA06_3_3,Length=0.039424000,Units=km
new line.TR12732650 bus1=BMT9339809B.1.2.3,bus2=BMT170793691.1.2.3,Phases=3,Linecode=CABA06_3_3,Length=0.054428000,Units=km
new line.TR12732662 bus1=BMT170793698.2,bus2=BMT9339822B.2,Phases=1,Linecode=CABA06_3_1,Length=0.064057000,Units=km
new line.TR12732663 bus1=BMT9339822B.2,bus2=BMT9339824B.2,Phases=1,Linecode=CABA06_3_1,Length=0.054593000,Units=km
new line.TR12732664 bus1=BMT9339824B.2,bus2=BMT9256584B.2,Phases=1,Linecode=CABA06_3_1,Length=0.025972000,Units=km
new line.TR12732665 bus1=BMT9256584B.2,bus2=BMT9339825B.2,Phases=1,Linecode=CABA06_3_1,Length=0.039221000,Units=km
new line.TR12732666 bus1=BMT9339825B.2,bus2=BMT9339826B.2,Phases=1,Linecode=CABA06_3_1,Length=0.040216000,Units=km
new line.TR12732667 bus1=BMT9339826B.2,bus2=BMT170793699.2,Phases=1,Linecode=CABA06_3_1,Length=0.025329000,Units=km
new line.TR12732695 bus1=BMT170793690.1.2.3,bus2=BMT9339793B.1.2.3,Phases=3,Linecode=CABA06_3_3,Length=0.057338000,Units=km
new line.TR12732696 bus1=BMT9339793B.1.2.3,bus2=BMT9339795B.1.2.3,Phases=3,Linecode=CABA06_3_3,Length=0.059438000,Units=km
new line.TR12732697 bus1=BMT9339795B.1.2.3,bus2=BMT9339796B.1.2.3,Phases=3,Linecode=CABA06_3_3,Length=0.044572000,Units=km
new line.TR12732698 bus1=BMT9339796B.1.2.3,bus2=BMT170793692.1.2.3,Phases=3,Linecode=CABA06_3_3,Length=0.052366000,Units=km
new line.TR12732720 bus1=BMT9256649B.1.2.3,bus2=BMT9339909B.1.2.3,Phases=3,Linecode=CABA06_3_3,Length=0.025623000,Units=km
new line.TR12732721 bus1=BMT9339909B.1.2.3,bus2=BMT9256665B.1.2.3,Phases=3,Linecode=CABA06_3_3,Length=0.010775000,Units=km
new line.TR12732750 bus1=BMT9256665B.1.2.3,bus2=BMT9339914B.1.2.3,Phases=3,Linecode=CABA06_3_3,Length=0.051809000,Units=km
new line.TR12732751 bus1=BMT9339914B.1.2.3,bus2=BMT9339915B.1.2.3,Phases=3,Linecode=CABA06_3_3,Length=0.032571000,Units=km
new line.TR12732752 bus1=BMT9339915B.1.2.3,bus2=BMT170793693.1.2.3,Phases=3,Linecode=CABA06_3_3,Length=0.030819000,Units=km
new line.TR12732753 bus1=BMT170793693.1.2.3,bus2=BMT9339922B.1.2.3,Phases=3,Linecode=CABA06_3_3,Length=0.022213000,Units=km
new line.TR12732754 bus1=BMT9339922B.1.2.3,bus2=BMT9339924B.1.2.3,Phases=3,Linecode=CABA06_3_3,Length=0.025190000,Units=km
new line.TR12732755 bus1=BMT9339924B.1.2.3,bus2=BMT9339925B.1.2.3,Phases=3,Linecode=CABA06_3_3,Length=0.027178000,Units=km
new line.TR12732756 bus1=BMT9339925B.1.2.3,bus2=BMT9339926B.1.2.3,Phases=3,Linecode=CABA06_3_3,Length=0.026183000,Units=km
new line.TR12732757 bus1=BMT9339926B.1.2.3,bus2=BMT9339927B.1.2.3,Phases=3,Linecode=CABA06_3_3,Length=0.028296000,Units=km
new line.TR12732758 bus1=BMT9339927B.1.2.3,bus2=BMT9339928B.1.2.3,Phases=3,Linecode=CABA06_3_3,Length=0.033390000,Units=km
new line.TR12732763 bus1=BMT9339928B.1.2.3,bus2=BMT170793694.1.2.3,Phases=3,Linecode=CABA06_3_3,Length=0.032262000,Units=km
new line.TR12732783 bus1=BMT9256692B.1.2.3,bus2=BMT9339937B.1.2.3,Phases=3,Linecode=CABA06_3_3,Length=0.034073000,Units=km
new line.TR12732784 bus1=BMT9339937B.1.2.3,bus2=BMT9339940B.1.2.3,Phases=3,Linecode=CABA06_3_3,Length=0.049112000,Units=km
new line.TR12732785 bus1=BMT9339940B.1.2.3,bus2=BMT9339941B.1.2.3,Phases=3,Linecode=CABA06_3_3,Length=0.034029000,Units=km
new line.TR12732786 bus1=BMT9339941B.1.2.3,bus2=BMT9256699B.1.2.3,Phases=3,Linecode=CABA06_3_3,Length=0.029167000,Units=km
new line.TR12732787 bus1=BMT9256699B.1.2.3,bus2=BMT9339942B.1.2.3,Phases=3,Linecode=CABA06_3_3,Length=0.033852000,Units=km
new line.TR12732788 bus1=BMT9339942B.1.2.3,bus2=BMT170793695.1.2.3,Phases=3,Linecode=CABA06_3_3,Length=0.045560000,Units=km
new line.TR12732789 bus1=BMT170793695.1.2.3,bus2=BMT9339944B.1.2.3,Phases=3,Linecode=CABA06_3_3,Length=0.028804000,Units=km
new line.TR12732829 bus1=BMT9339944B.1.2.3,bus2=BMT9256697B.1.2.3,Phases=3,Linecode=CABA06_3_3,Length=0.027525000,Units=km
new line.TR12732832 bus1=BMT9256697B.1.2.3,bus2=BMT9339959B.1.2.3,Phases=3,Linecode=CABA06_3_3,Length=0.025953000,Units=km
new line.TR12732835 bus1=BMT9339959B.1.2.3,bus2=BMT170793696.1.2.3,Phases=3,Linecode=CABA06_3_3,Length=0.029081000,Units=km
new line.TR12732839 bus1=BMT9256780B.1.2.3,bus2=BMT9339976B.1.2.3,Phases=3,Linecode=CABA06_3_3,Length=0.043480000,Units=km
new line.TR12732840 bus1=BMT9339976B.1.2.3,bus2=BMT9339977B.1.2.3,Phases=3,Linecode=CABA06_3_3,Length=0.047947000,Units=km
new line.TR12732841 bus1=BMT9339977B.1.2.3,bus2=BMT9256774B.1.2.3,Phases=3,Linecode=CABA06_3_3,Length=0.046635000,Units=km
new line.TR12732844 bus1=BMT9256788B.1.2.3,bus2=BMT9339979B.1.2.3,Phases=3,Linecode=CABA06_3_3,Length=0.025972000,Units=km
new line.TR12732854 bus1=BMT9257074B.1.2.3,bus2=BMT170792337.1.2.3,Phases=3,Linecode=CABA06_3_3,Length=0.049840000,Units=km
new line.TR12732903 bus1=BMT9339979B.1.2.3,bus2=BMT167919070.1.2.3,Phases=3,Linecode=CABA06_3_3,Length=0.055050000,Units=km
new line.TR12732909 bus1=BMT6911596B.3,bus2=BMT9256816B.3,Phases=1,Linecode=CABA06_3_1,Length=0.030819000,Units=km
new line.TR12732910 bus1=BMT9256816B.3,bus2=BMT170794628.3,Phases=1,Linecode=CABA06_3_1,Length=0.035455000,Units=km
new line.TR12732936 bus1=BMT9256887B.3,bus2=BMT9340069B.3,Phases=1,Linecode=CABA06_3_1,Length=0.030096000,Units=km
new line.TR12732937 bus1=BMT9340069B.3,bus2=BMT170794632.3,Phases=1,Linecode=CABA06_3_1,Length=0.027214000,Units=km
new line.TR12732942 bus1=BMT170794634.3,bus2=BMT9340072B.3,Phases=1,Linecode=CABA06_3_1,Length=0.029423000,Units=km
new line.TR12732943 bus1=BMT9340072B.3,bus2=BMT9340073B.3,Phases=1,Linecode=CABA06_3_1,Length=0.035455000,Units=km
new line.TR12732944 bus1=BMT9340073B.3,bus2=BMT9340075B.3,Phases=1,Linecode=CABA06_3_1,Length=0.054731000,Units=km
new line.TR12732945 bus1=BMT9340075B.3,bus2=BMT9340076B.3,Phases=1,Linecode=CABA06_3_1,Length=0.050617000,Units=km
new line.TR12732946 bus1=BMT9340076B.3,bus2=BMT170794635.3,Phases=1,Linecode=CABA06_3_1,Length=0.051877000,Units=km
new line.TR12732947 bus1=BMT170794635.3,bus2=BMT170794636.3,Phases=1,Linecode=CABA06_3_1,Length=0.042562000,Units=km
new line.TR12165528 bus1=BMT163268758.1.2.3,bus2=BMT967581B.1.2.3,Phases=3,Linecode=CABA06_3_3,Length=0.032540000,Units=km
new line.TR12165532 bus1=BMT967581B.1.2.3,bus2=BMT967574B.1.2.3,Phases=3,Linecode=CABA06_3_3,Length=0.035370000,Units=km
new line.TR12165534 bus1=BMT967574B.1.2.3,bus2=BMT967567B.1.2.3,Phases=3,Linecode=CABA06_3_3,Length=0.033955000,Units=km
new line.TR12165535 bus1=BMT967567B.1.2.3,bus2=BMT8762973B.1.2.3,Phases=3,Linecode=CABA06_3_3,Length=0.033555000,Units=km
new line.TR12165536 bus1=BMT8762973B.1.2.3,bus2=BMT163268759.1.2.3,Phases=3,Linecode=CABA06_3_3,Length=0.030884000,Units=km
new line.TR12165554 bus1=BMT163268759.1.2.3,bus2=BMT8762980B.1.2.3,Phases=3,Linecode=CABA06_3_3,Length=0.031794000,Units=km
new line.TR12165556 bus1=BMT8762980B.1.2.3,bus2=BMT8762988B.1.2.3,Phases=3,Linecode=CABA06_3_3,Length=0.030476000,Units=km
new line.TR12165574 bus1=BMT8762988B.1.2.3,bus2=BMT8762991B.1.2.3,Phases=3,Linecode=CABA06_3_3,Length=0.031398000,Units=km
new line.TR12165579 bus1=BMT8762991B.1.2.3,bus2=BMT163268760.1.2.3,Phases=3,Linecode=CABA06_3_3,Length=0.029559000,Units=km
new line.TR12271601 bus1=BMT166542441.1.2.3,bus2=BMT166542442.1.2.3,Phases=3,Linecode=CABA06_3_3,Length=0.032293000,Units=km
new line.TR12645878 bus1=BMT170793691.1.2.3,bus2=BMT170793698.1.2.3,Phases=3,Linecode=CABA06_3_3,Length=0.054840000,Units=km
new line.TR12645952 bus1=BMT170793692.1.2.3,bus2=BMT9256649B.1.2.3,Phases=3,Linecode=CABA06_3_3,Length=0.043157000,Units=km
new line.TR12646035 bus1=BMT170793694.1.2.3,bus2=BMT9256692B.1.2.3,Phases=3,Linecode=CABA06_3_3,Length=0.043584000,Units=km
new line.TR12646061 bus1=BMT170793696.1.2.3,bus2=BMT9256775B.1.2.3,Phases=3,Linecode=CABA06_3_3,Length=0.031636000,Units=km
new line.TR12646062 bus1=BMT9256775B.1.2.3,bus2=BMT170793697.1.2.3,Phases=3,Linecode=CABA06_3_3,Length=0.028648000,Units=km
new line.TR12646063 bus1=BMT170793697.1.2.3,bus2=BMT9256780B.1.2.3,Phases=3,Linecode=CABA06_3_3,Length=0.028172000,Units=km
new line.TR12646078 bus1=BMT9256774B.1.2.3,bus2=BMT9256788B.1.2.3,Phases=3,Linecode=CABA06_3_3,Length=0.051129000,Units=km
new line.TR12646080 bus1=BMT167919070.3,bus2=BMT170787872.3,Phases=1,Linecode=CABA06_3_1,Length=0.051915000,Units=km
new line.TR12646081 bus1=BMT170794627.3,bus2=BMT6911603B.3,Phases=1,Linecode=CABA06_3_1,Length=0.045207000,Units=km
new line.TR12646082 bus1=BMT6911603B.3,bus2=BMT6911596B.3,Phases=1,Linecode=CABA06_3_1,Length=0.047030000,Units=km
new line.TR12646106 bus1=BMT170794629.3,bus2=BMT170794628.3,Phases=1,Linecode=CABA06_3_1,Length=0.056539000,Units=km
new line.TR12646201 bus1=BMT170794630.3,bus2=BMT9256887B.3,Phases=1,Linecode=CABA06_3_1,Length=0.031636000,Units=km
new line.TR12646203 bus1=BMT170794632.3,bus2=BMT9256869B.3,Phases=1,Linecode=CABA06_3_1,Length=0.014771000,Units=km
new line.TR12646207 bus1=BMT170794633.3,bus2=BMT170794640.3,Phases=1,Linecode=CABA06_3_1,Length=0.023205000,Units=km
new line.TR12646331 bus1=BMT170791994.1.2.3,bus2=BMT170791995.1.2.3,Phases=3,Linecode=CAB609_3_3,Length=0.004125000,Units=km
new line.TR12646332 bus1=BMT170791995.1.2.3,bus2=BMT9257062B.1.2.3,Phases=3,Linecode=CAB609_3_3,Length=0.022482000,Units=km
new line.TR12646333 bus1=BMT9257062B.1.2.3,bus2=BMT170791996.1.2.3,Phases=3,Linecode=CAB609_3_3,Length=0.046344000,Units=km
new line.TR12646334 bus1=BMT170791996.1.2.3,bus2=BMT170791997.1.2.3,Phases=3,Linecode=CAB609_3_3,Length=0.004125000,Units=km
new line.TR12646335 bus1=BMT167919123.1.2.3,bus2=BMT170792336.1.2.3,Phases=3,Linecode=CABA06_3_3,Length=0.027214000,Units=km
new line.TR12646345 bus1=BMT9257072B.1.2.3,bus2=BMT9257074B.1.2.3,Phases=3,Linecode=CABA06_3_3,Length=0.011667000,Units=km
new line.TR12682939 bus1=BMT169144537.1.2.3,bus2=BMT9291784B.1.2.3,Phases=3,Linecode=CABA06_3_3,Length=0.008066000,Units=km
new line.TR12682960 bus1=BMT9291784B.1.2.3,bus2=BMT967630B.1.2.3,Phases=3,Linecode=CABA06_3_3,Length=0.039979000,Units=km
new line.TR12682963 bus1=BMT967630B.1.2.3,bus2=BMT169144539.1.2.3,Phases=3,Linecode=CABA06_3_3,Length=0.034073000,Units=km
new line.TR1356865 bus1=BMT124252741.1.2.3,bus2=BMT169899873.1.2.3,Phases=3,Linecode=CAB107_3_3,Length=0.021941000,Units=km
new line.TR1356879 bus1=BMT1986732B.1.2.3,bus2=BMT2303636B.1.2.3,Phases=3,Linecode=CABA08_3_3,Length=0.029167000,Units=km
new line.TR1356886 bus1=BMT172443063.1.2.3,bus2=BMT172443064.1.2.3,Phases=3,Linecode=CAB107_3_3,Length=0.009224000,Units=km
new line.TR1356893 bus1=BMT172443063.1.2.3,bus2=BMT172443065.1.2.3,Phases=3,Linecode=CAB107_3_3,Length=0.017125000,Units=km
new line.TR1356900 bus1=BMT172443063.1.2.3,bus2=BMT968134B.1.2.3,Phases=3,Linecode=CAB107_3_3,Length=0.013159000,Units=km
new line.TR1356907 bus1=BMT170488106.1.2.3,bus2=BMT149156481.1.2.3,Phases=3,Linecode=CAB107_3_3,Length=0.010004000,Units=km
new line.TR1356914 bus1=BMT170488106.1.2.3,bus2=BMT945958B.1.2.3,Phases=3,Linecode=CAB107_3_3,Length=0.008066000,Units=km
new line.TR1356921 bus1=BMT170488106.1.2.3,bus2=BMT945972B.1.2.3,Phases=3,Linecode=CAB107_3_3,Length=0.023334000,Units=km
new line.TR1356928 bus1=BMT169267512.1.2.3,bus2=BMT2298953B.1.2.3,Phases=3,Linecode=CAB107_3_3,Length=0.032770000,Units=km
new line.TR1356935 bus1=BMT169267512.1.2.3,bus2=BMT2298960B.1.2.3,Phases=3,Linecode=CAB107_3_3,Length=0.033985000,Units=km
new line.TR1356942 bus1=BMT124254750.1.2.3,bus2=BMT124254757.1.2.3,Phases=3,Linecode=CAB102_3_3,Length=0.032029000,Units=km
new line.TR1356949 bus1=BMT124253791.1.2.3,bus2=BMT124253798.1.2.3,Phases=3,Linecode=CAB107_3_3,Length=0.036785000,Units=km
new line.TR1356956 bus1=BMT1986767B.1.2.3,bus2=BMT169267513.1.2.3,Phases=3,Linecode=CAB107_3_3,Length=0.033629000,Units=km
new line.TR1356963 bus1=BMT1986767B.1.2.3,bus2=BMT2298904B.1.2.3,Phases=3,Linecode=CAB107_3_3,Length=0.038965000,Units=km
new line.TR1356970 bus1=BMT124253805.1.2.3,bus2=BMT2296748B.1.2.3,Phases=3,Linecode=CAB107_3_3,Length=0.044313000,Units=km
new line.TR1356977 bus1=BMT124254666.1.2.3,bus2=BMT2296797B.1.2.3,Phases=3,Linecode=CAB107_3_3,Length=0.042444000,Units=km
new line.TR1356984 bus1=BMT124253819.1.2.3,bus2=BMT169449749.1.2.3,Phases=3,Linecode=CAB103_3_3,Length=0.041502000,Units=km
new line.TR1356991 bus1=BMT1986788B.1.2.3,bus2=BMT169449705.1.2.3,Phases=3,Linecode=CAB102_3_3,Length=0.032663000,Units=km
new line.TR1356998 bus1=BMT169449705.1.2.3,bus2=BMT2300696B.1.2.3,Phases=3,Linecode=CAB102_3_3,Length=0.056962000,Units=km
new line.TR1357005 bus1=BMT169449705.1.2.3,bus2=BMT124254344.1.2.3,Phases=3,Linecode=CAB103_3_3,Length=0.034453000,Units=km
new line.TR1357012 bus1=BMT169449707.1.2.3,bus2=BMT169449708.1.2.3,Phases=3,Linecode=CAB102_3_3,Length=0.012171000,Units=km
new line.TR1357019 bus1=BMT169449707.1.2.3,bus2=BMT124254372.1.2.3,Phases=3,Linecode=CAB102_3_3,Length=0.005388000,Units=km
new line.TR1357026 bus1=BMT1986809B.1.2.3,bus2=BMT2321192B.1.2.3,Phases=3,Linecode=CAB103_3_3,Length=0.029423000,Units=km
new line.TR1357033 bus1=BMT1986809B.1.2.3,bus2=BMT124254407.1.2.3,Phases=3,Linecode=CAB103_3_3,Length=0.032216000,Units=km
new line.TR1357040 bus1=BMT1986816B.1.2.3,bus2=BMT2321192B.1.2.3,Phases=3,Linecode=CAB103_3_3,Length=0.027814000,Units=km
new line.TR1357047 bus1=BMT1986823B.1.2.3,bus2=BMT2321185B.1.2.3,Phases=3,Linecode=CAB103_3_3,Length=0.034684000,Units=km
new line.TR1357054 bus1=BMT1986823B.1.2.3,bus2=BMT2321206B.1.2.3,Phases=3,Linecode=CAB103_3_3,Length=0.029081000,Units=km
new line.TR1357061 bus1=BMT1986830B.1.2.3,bus2=BMT2321150B.1.2.3,Phases=3,Linecode=CAB103_3_3,Length=0.034943000,Units=km
new line.TR1357068 bus1=BMT1986830B.1.2.3,bus2=BMT124254414.1.2.3,Phases=3,Linecode=CAB103_3_3,Length=0.035370000,Units=km
new line.TR1357075 bus1=BMT1986837B.1.2.3,bus2=BMT2321143B.1.2.3,Phases=3,Linecode=CAB103_3_3,Length=0.037015000,Units=km
new line.TR1357082 bus1=BMT1986837B.1.2.3,bus2=BMT2321150B.1.2.3,Phases=3,Linecode=CAB103_3_3,Length=0.034943000,Units=km
new line.TR1357089 bus1=BMT1986844B.1.2.3,bus2=BMT124254421.1.2.3,Phases=3,Linecode=CAB103_3_3,Length=0.033748000,Units=km
new line.TR1357096 bus1=BMT1986844B.1.2.3,bus2=BMT2321143B.1.2.3,Phases=3,Linecode=CAB103_3_3,Length=0.035455000,Units=km
new line.TR1357103 bus1=BMT124254652.1.2.3,bus2=BMT124254659.1.2.3,Phases=3,Linecode=CAB102_3_3,Length=0.032907000,Units=km
new line.TR1357110 bus1=BMT124254428.1.2.3,bus2=BMT1986858B.1.2.3,Phases=3,Linecode=CAB102_3_3,Length=0.025506000,Units=km
new line.TR1357117 bus1=BMT1986858B.1.2.3,bus2=BMT2288817B.1.2.3,Phases=3,Linecode=CAB102_3_3,Length=0.063097000,Units=km
new line.TR1357124 bus1=BMT1986865B.1.2.3,bus2=BMT2288859B.1.2.3,Phases=3,Linecode=CAB102_3_3,Length=0.030012000,Units=km
new line.TR1357131 bus1=BMT1986872B.1.2.3,bus2=BMT2321087B.1.2.3,Phases=3,Linecode=CAB103_3_3,Length=0.035370000,Units=km
new line.TR1357138 bus1=BMT1986879B.1.2.3,bus2=BMT124254449.1.2.3,Phases=3,Linecode=CAB103_3_3,Length=0.023031000,Units=km
new line.TR1357145 bus1=BMT1986879B.1.2.3,bus2=BMT2321059B.1.2.3,Phases=3,Linecode=CAB103_3_3,Length=0.037499000,Units=km
new line.TR1357152 bus1=BMT124254456.2,bus2=BMT124254463.2,Phases=1,Linecode=CAB103_3_1,Length=0.061547000,Units=km
new line.TR1357159 bus1=BMT124254456.1.2.3,bus2=BMT124254449.1.2.3,Phases=3,Linecode=CAB103_3_3,Length=0.030029000,Units=km
new line.TR1357166 bus1=BMT170793689.1.2.3,bus2=BMT1986900B.1.2.3,Phases=3,Linecode=CABA06_3_3,Length=0.024052000,Units=km
new line.TR1357236 bus1=BMT1986942B.3,bus2=BMT170794639.3,Phases=1,Linecode=CAB103_3_1,Length=0.074361000,Units=km
new line.TR1357341 bus1=BMT124254379.1.2.3,bus2=BMT124254386.1.2.3,Phases=3,Linecode=CAB102_3_3,Length=0.046891000,Units=km
new line.TR1357348 bus1=BMT124253847.1.2.3,bus2=BMT1987047B.1.2.3,Phases=3,Linecode=CAB103_3_3,Length=0.041053000,Units=km
new line.TR1357355 bus1=BMT169449753.1.2.3,bus2=BMT2283364B.1.2.3,Phases=3,Linecode=CAB103_3_3,Length=0.039841000,Units=km
new line.TR1357362 bus1=BMT1987047B.1.2.3,bus2=BMT1987054B.1.2.3,Phases=3,Linecode=CAB103_3_3,Length=0.035000000,Units=km
new line.TR1357369 bus1=BMT1987054B.1.2.3,bus2=BMT2283378B.1.2.3,Phases=3,Linecode=CAB103_3_3,Length=0.048897000,Units=km
new line.TR1357376 bus1=BMT124254309.2,bus2=BMT953945B.2,Phases=1,Linecode=CAB102_3_1,Length=0.018119000,Units=km
new line.TR1357383 bus1=BMT124253854.1.2.3,bus2=BMT2283357B.1.2.3,Phases=3,Linecode=CAB103_3_3,Length=0.049760000,Units=km
new line.TR1357390 bus1=BMT1987068B.1.2.3,bus2=BMT2286976B.1.2.3,Phases=3,Linecode=CAB103_3_3,Length=0.031029000,Units=km
new line.TR1357397 bus1=BMT166542439.1.2.3,bus2=BMT952944B.1.2.3,Phases=3,Linecode=CAB102_3_3,Length=0.005834000,Units=km
new line.TR1357404 bus1=BMT166542439.1.2.3,bus2=BMT959090B.1.2.3,Phases=3,Linecode=CAB102_3_3,Length=0.034943000,Units=km
new line.TR1357411 bus1=BMT166542439.1.2.3,bus2=BMT166542441.1.2.3,Phases=3,Linecode=CAB102_3_3,Length=0.004125000,Units=km
new line.TR1357418 bus1=BMT166542440.3,bus2=BMT124254127.3,Phases=1,Linecode=CAB102_3_1,Length=0.022213000,Units=km
new line.TR1357425 bus1=BMT166542440.3,bus2=BMT952986B.3,Phases=1,Linecode=CAB102_3_1,Length=0.012088000,Units=km
new line.TR1357432 bus1=BMT166542440.1.2.3,bus2=BMT953000B.1.2.3,Phases=3,Linecode=CAB102_3_3,Length=0.015531000,Units=km
new line.TR1357439 bus1=BMT170840921.1.2.3,bus2=BMT2298974B.1.2.3,Phases=3,Linecode=CAB107_3_3,Length=0.035370000,Units=km
new line.TR1357453 bus1=BMT170840922.1.2.3,bus2=BMT170840923.1.2.3,Phases=3,Linecode=CAB107_3_3,Length=0.031841000,Units=km
new line.TR1357460 bus1=BMT153264841.1.2.3,bus2=BMT941219B.1.2.3,Phases=3,Linecode=CAB102_3_3,Length=0.037231000,Units=km
new line.TR1357467 bus1=BMT153264841.1.2.3,bus2=BMT944887B.1.2.3,Phases=3,Linecode=CAB102_3_3,Length=0.036907000,Units=km
new line.TR1357474 bus1=BMT153264841.1.2.3,bus2=BMT944922B.1.2.3,Phases=3,Linecode=CAB102_3_3,Length=0.010004000,Units=km
new line.TR1357481 bus1=BMT153264841.1.2.3,bus2=BMT944929B.1.2.3,Phases=3,Linecode=CAB102_3_3,Length=0.018365000,Units=km
new line.TR12380997 bus1=BMT171351236.1.2.3,bus2=BMT943305B.1.2.3,Phases=3,Linecode=CABA06_3_3,Length=0.034146000,Units=km
new line.TR12380998 bus1=BMT943305B.1.2.3,bus2=BMT943284B.1.2.3,Phases=3,Linecode=CABA06_3_3,Length=0.038603000,Units=km
new line.TR12380999 bus1=BMT943284B.1.2.3,bus2=BMT943277B.1.2.3,Phases=3,Linecode=CABA06_3_3,Length=0.029423000,Units=km
new line.TR12381000 bus1=BMT943277B.1.2.3,bus2=BMT2284918B.1.2.3,Phases=3,Linecode=CABA06_3_3,Length=0.030541000,Units=km
new line.TR12381001 bus1=BMT2284918B.1.2.3,bus2=BMT949661B.1.2.3,Phases=3,Linecode=CABA06_3_3,Length=0.028314000,Units=km
new line.TR12381144 bus1=BMT157621767.1.2.3,bus2=BMT157621769.1.2.3,Phases=3,Linecode=CABA06_3_3,Length=0.032770000,Units=km
new line.TR12381147 bus1=BMT968666B.1.2.3,bus2=BMT968687B.1.2.3,Phases=3,Linecode=CABA06_3_3,Length=0.032463000,Units=km
new line.TR12381148 bus1=BMT968687B.1.2.3,bus2=BMT968701B.1.2.3,Phases=3,Linecode=CABA06_3_3,Length=0.030541000,Units=km
new line.TR12381149 bus1=BMT968701B.1.2.3,bus2=BMT968722B.1.2.3,Phases=3,Linecode=CABA06_3_3,Length=0.040514000,Units=km
new line.TR12381150 bus1=BMT968722B.1.2.3,bus2=BMT157621768.1.2.3,Phases=3,Linecode=CABA06_3_3,Length=0.036907000,Units=km
new line.TR12381190 bus1=BMT157624112.2,bus2=BMT953077B.2,Phases=1,Linecode=CABA06_3_1,Length=0.031061000,Units=km
new line.TR12381191 bus1=BMT953077B.2,bus2=BMT953070B.2,Phases=1,Linecode=CABA06_3_1,Length=0.032029000,Units=km
new line.TR12381192 bus1=BMT953070B.2,bus2=BMT953056B.2,Phases=1,Linecode=CABA06_3_1,Length=0.029423000,Units=km
new line.TR12381193 bus1=BMT953056B.2,bus2=BMT157624114.2,Phases=1,Linecode=CABA06_3_1,Length=0.034496000,Units=km
new line.TR12381467 bus1=BMT157633845.1,bus2=BMT2965906B.1,Phases=1,Linecode=CABA06_3_1,Length=0.042597000,Units=km
new line.TR12381468 bus1=BMT2965906B.1,bus2=BMT2966088B.1,Phases=1,Linecode=CABA06_3_1,Length=0.043308000,Units=km
new line.TR12381469 bus1=BMT2966088B.1,bus2=BMT157633847.1,Phases=1,Linecode=CABA06_3_1,Length=0.042314000,Units=km
new line.TR12667103 bus1=BMT951880B.1.2.3,bus2=BMT9276828B.1.2.3,Phases=3,Linecode=CAB107_3_3,Length=0.015818000,Units=km
new line.TR12667104 bus1=BMT9276828B.1.2.3,bus2=BMT951873B.1.2.3,Phases=3,Linecode=CAB107_3_3,Length=0.011407000,Units=km
new line.TR12669595 bus1=BMT172443059.1.2.3,bus2=BMT172443070.1.2.3,Phases=3,Linecode=CABA08_3_3,Length=0.036416000,Units=km
new line.TR12669596 bus1=BMT172443006.1.2.3,bus2=BMT2756984B.1.2.3,Phases=3,Linecode=CABA08_3_3,Length=0.030096000,Units=km
new line.TR12669597 bus1=BMT2756984B.1.2.3,bus2=BMT966482B.1.2.3,Phases=3,Linecode=CABA08_3_3,Length=0.032907000,Units=km
new line.TR12669598 bus1=BMT966482B.1.2.3,bus2=BMT966475B.1.2.3,Phases=3,Linecode=CABA08_3_3,Length=0.036785000,Units=km
new line.TR12669599 bus1=BMT966475B.1.2.3,bus2=BMT966461B.1.2.3,Phases=3,Linecode=CABA08_3_3,Length=0.027868000,Units=km
new line.TR12669602 bus1=BMT966461B.1.2.3,bus2=BMT172443113.1.2.3,Phases=3,Linecode=CABA08_3_3,Length=0.029133000,Units=km
new line.TR1737049 bus1=BMT2288754B.1.2.3,bus2=BMT2321122B.1.2.3,Phases=3,Linecode=CAB102_3_3,Length=0.034943000,Units=km
new line.TR1737056 bus1=BMT2288754B.1.2.3,bus2=BMT124254421.1.2.3,Phases=3,Linecode=CAB102_3_3,Length=0.035708000,Units=km
new line.TR1737098 bus1=BMT2288817B.1.2.3,bus2=BMT2288824B.1.2.3,Phases=3,Linecode=CAB102_3_3,Length=0.036237000,Units=km
new line.TR1737105 bus1=BMT2288824B.1.2.3,bus2=BMT2288831B.1.2.3,Phases=3,Linecode=CAB102_3_3,Length=0.034146000,Units=km
new line.TR1737112 bus1=BMT2288831B.1.2.3,bus2=BMT2288838B.1.2.3,Phases=3,Linecode=CAB102_3_3,Length=0.036070000,Units=km
new line.TR1737119 bus1=BMT2288838B.1.2.3,bus2=BMT2288845B.1.2.3,Phases=3,Linecode=CAB102_3_3,Length=0.060058000,Units=km
new line.TR1737126 bus1=BMT2288845B.1.2.3,bus2=BMT1986865B.1.2.3,Phases=3,Linecode=CAB102_3_3,Length=0.040016000,Units=km
new line.TR1737133 bus1=BMT2288859B.1.2.3,bus2=BMT2321115B.1.2.3,Phases=3,Linecode=CAB102_3_3,Length=0.036070000,Units=km
new line.TR1737140 bus1=BMT124254435.1.2.3,bus2=BMT124254442.1.2.3,Phases=3,Linecode=CAB103_3_3,Length=0.038226000,Units=km
new line.TR1737147 bus1=BMT124254435.1.2.3,bus2=BMT2321115B.1.2.3,Phases=3,Linecode=CAB102_3_3,Length=0.035072000,Units=km
new line.TR1737434 bus1=BMT2289594B.1.2.3,bus2=BMT969303B.1.2.3,Phases=3,Linecode=CAB107_3_3,Length=0.029167000,Units=km
new line.TR1737441 bus1=BMT2289601B.1.2.3,bus2=BMT966412B.1.2.3,Phases=3,Linecode=CAB107_3_3,Length=0.033255000,Units=km
new line.TR1741417 bus1=BMT2295880B.1.2.3,bus2=BMT956164B.1.2.3,Phases=3,Linecode=CAB107_3_3,Length=0.006328000,Units=km
new line.TR1741788 bus1=BMT2296664B.1.2.3,bus2=BMT2296671B.1.2.3,Phases=3,Linecode=CAB102_3_3,Length=0.030541000,Units=km
new line.TR1741795 bus1=BMT2296671B.1.2.3,bus2=BMT1986788B.1.2.3,Phases=3,Linecode=CAB102_3_3,Length=0.033135000,Units=km
new line.TR1741851 bus1=BMT2296713B.1.2.3,bus2=BMT169267460.1.2.3,Phases=3,Linecode=CAB107_3_3,Length=0.042562000,Units=km
new line.TR1741858 bus1=BMT169267459.1.2.3,bus2=BMT2296713B.1.2.3,Phases=3,Linecode=CAB107_3_3,Length=0.042562000,Units=km
new line.TR1741865 bus1=BMT2296727B.1.2.3,bus2=BMT169267257.1.2.3,Phases=3,Linecode=CAB107_3_3,Length=0.043064000,Units=km
new line.TR1741872 bus1=BMT2296734B.1.2.3,bus2=BMT2296727B.1.2.3,Phases=3,Linecode=CAB107_3_3,Length=0.044437000,Units=km
new line.TR1741879 bus1=BMT2296748B.1.2.3,bus2=BMT2296734B.1.2.3,Phases=3,Linecode=CAB107_3_3,Length=0.041694000,Units=km
new line.TR1741893 bus1=BMT2296776B.1.2.3,bus2=BMT124253805.1.2.3,Phases=3,Linecode=CAB107_3_3,Length=0.043064000,Units=km
new line.TR1741900 bus1=BMT2296783B.1.2.3,bus2=BMT2296776B.1.2.3,Phases=3,Linecode=CAB107_3_3,Length=0.043434000,Units=km
new line.TR1741907 bus1=BMT169267513.1.2.3,bus2=BMT2296783B.1.2.3,Phases=3,Linecode=CAB107_3_3,Length=0.041694000,Units=km
new line.TR1741914 bus1=BMT2296797B.1.2.3,bus2=BMT969723B.1.2.3,Phases=3,Linecode=CAB107_3_3,Length=0.036084000,Units=km
new line.TR1741921 bus1=BMT2296818B.1.2.3,bus2=BMT2296825B.1.2.3,Phases=3,Linecode=CAB107_3_3,Length=0.034670000,Units=km
...
