2024_89_CemigReconfigurationCases/1_AlimsCemig/PRRU09/PRRU09SegmentosBT.dss
new line.1175474 bus1=BBT1270800.1.2.3.0,bus2=BBT1270793.1.2.3.0,Phases=3,Linecode=BT108_BT107_7_3_1,Length=0.038226000,Units=km
new line.1175481 bus1=BBT1270702.1.2.3.0,bus2=BBT1270800.1.2.3.0,Phases=3,Linecode=BT309_BT309_7_3_1,Length=0.000501000,Units=km
new line.1175488 bus1=BBT1270800.1.2.3.0,bus2=BBT1270814.1.2.3.0,Phases=3,Linecode=BT108_BT107_7_3_1,Length=0.032262000,Units=km
new line.1175495 bus1=BBT1270800.1.2.3.0,bus2=BBT2234742.1.2.3.0,Phases=3,Linecode=BT513_BT513_5_3_1,Length=0.004002000,Units=km
new line.1175502 bus1=BBT1270807.1.2.3.0,bus2=BBT1270842.1.2.3.0,Phases=3,Linecode=BT107_BT106_7_3_1,Length=0.032262000,Units=km
new line.1175509 bus1=BBT1270814.1.2.3.0,bus2=BBT1270821.1.2.3.0,Phases=3,Linecode=BT108_BT107_7_3_1,Length=0.030162000,Units=km
new line.1175516 bus1=BBT1270821.1.2.3.0,bus2=BBT1270828.1.2.3.0,Phases=3,Linecode=BT108_BT107_7_3_1,Length=0.037352000,Units=km
new line.1175523 bus1=BBT1270828.1.2.3.0,bus2=BBT1270835.1.2.3.0,Phases=3,Linecode=BT107_BT106_7_3_1,Length=0.010821000,Units=km
new line.1175530 bus1=BBT1270835.1.2.3.0,bus2=BBT1270849.1.2.3.0,Phases=3,Linecode=BT107_BT106_7_3_1,Length=0.023205000,Units=km
new line.1175537 bus1=BBT1270842.1.2.3.0,bus2=BBT1270870.1.2.3.0,Phases=3,Linecode=BT107_BT106_7_3_1,Length=0.038226000,Units=km
new line.1175544 bus1=BBT1270849.1.2.3.0,bus2=BBT1270884.1.2.3.0,Phases=3,Linecode=BT107_BT106_7_3_1,Length=0.030162000,Units=km
new line.1175551 bus1=BBT1270863.1.2.3.0,bus2=BBT2234910.1.2.3.0,Phases=3,Linecode=BT107_BT106_7_3_1,Length=0.036015000,Units=km
new line.1175558 bus1=BBT1270870.1.2.3.0,bus2=BBT1270877.1.2.3.0,Phases=3,Linecode=BT107_BT106_7_3_1,Length=0.025090000,Units=km
new line.1175565 bus1=BBT1270870.1.2.3.0,bus2=BBT1270898.1.2.3.0,Phases=3,Linecode=BT107_BT106_7_3_1,Length=0.038095000,Units=km
new line.1175579 bus1=BBT1270877.1.2.3.0,bus2=BBT1270856.1.2.3.0,Phases=3,Linecode=BT107_BT106_7_3_1,Length=0.027011000,Units=km
new line.1175586 bus1=BBT1270884.1.2.3.0,bus2=BBT1270863.1.2.3.0,Phases=3,Linecode=BT107_BT106_7_3_1,Length=0.035029000,Units=km
new line.1175593 bus1=BBT1270884.1.2.3.0,bus2=BBT1270891.1.2.3.0,Phases=3,Linecode=BT107_BT106_7_3_1,Length=0.039475000,Units=km
new line.1175600 bus1=BBT1270891.1.2.3.0,bus2=BBT1270905.1.2.3.0,Phases=3,Linecode=BT107_BT106_7_3_1,Length=0.029440000,Units=km
new line.1175691 bus1=BBT1271003.1.2.3.0,bus2=BBT1271010.1.2.3.0,Phases=3,Linecode=BT307_BT307_7_3_1,Length=0.000501000,Units=km
new line.1175698 bus1=BBT1271031.1.2.3.0,bus2=BBT1271024.1.2.3.0,Phases=3,Linecode=BT107_BT106_7_3_1,Length=0.031919000,Units=km
new line.1175705 bus1=BBT1271045.1.2.3.0,bus2=BBT1271031.1.2.3.0,Phases=3,Linecode=BT107_BT106_7_3_1,Length=0.032770000,Units=km
new line.1175712 bus1=BBT1271052.1.2.3.0,bus2=BBT1271038.1.2.3.0,Phases=3,Linecode=BT107_BT106_7_3_1,Length=0.032262000,Units=km
new line.1175719 bus1=BBT1271052.1.2.3.0,bus2=BBT1271045.1.2.3.0,Phases=3,Linecode=BT108_BT107_7_3_1,Length=0.013422000,Units=km
new line.1175726 bus1=BBT1271052.1.2.3.0,bus2=BBT1271059.1.2.3.0,Phases=3,Linecode=BT107_BT106_7_3_1,Length=0.005002000,Units=km
new line.1175733 bus1=BBT1271059.1.2.3.0,bus2=BBT1271066.1.2.3.0,Phases=3,Linecode=BT107_BT106_7_3_1,Length=0.024709000,Units=km
new line.1175740 bus1=BBT1271066.1.2.3.0,bus2=BBT1271080.1.2.3.0,Phases=3,Linecode=BT107_BT106_7_3_1,Length=0.028314000,Units=km
new line.1175747 bus1=BBT1271073.1.2.3.0,bus2=BBT1271052.1.2.3.0,Phases=3,Linecode=BT108_BT107_7_3_1,Length=0.025010000,Units=km
new line.1175754 bus1=BBT1271087.1.2.3.0,bus2=BBT1271073.1.2.3.0,Phases=3,Linecode=BT108_BT107_7_3_1,Length=0.032770000,Units=km
new line.1175761 bus1=BBT1271017.1.2.3.0,bus2=BBT1271087.1.2.3.0,Phases=3,Linecode=BT309_BT309_7_3_1,Length=0.000501000,Units=km
new line.1175768 bus1=BBT1271087.1.2.3.0,bus2=BBT1271101.1.2.3.0,Phases=3,Linecode=BT108_BT107_7_3_1,Length=0.029694000,Units=km
new line.1175775 bus1=BBT1271101.1.2.3.0,bus2=BBT2244234.1.2.3.0,Phases=3,Linecode=BT108_BT107_7_3_1,Length=0.014219000,Units=km
new line.1175782 bus1=BBT1271108.1.2.3.0,bus2=BBT1271094.1.2.3.0,Phases=3,Linecode=BT107_BT106_7_3_1,Length=0.029845000,Units=km
new line.1175789 bus1=BBT1271115.1.2.3.0,bus2=BBT1271108.1.2.3.0,Phases=3,Linecode=BT107_BT106_7_3_1,Length=0.029845000,Units=km
new line.1175796 bus1=BBT1271129.1.2.3.0,bus2=BBT1271136.1.2.3.0,Phases=3,Linecode=BT107_BT106_7_3_1,Length=0.045910000,Units=km
new line.1175803 bus1=BBT1271143.1.2.3.0,bus2=BBT1271157.1.2.3.0,Phases=3,Linecode=BT107_BT106_7_3_1,Length=0.028856000,Units=km
new line.1175810 bus1=BBT1271150.1.2.3.0,bus2=BBT1271171.1.2.3.0,Phases=3,Linecode=BT107_BT106_7_3_1,Length=0.026088000,Units=km
new line.1175817 bus1=BBT1271157.1.2.3.0,bus2=BBT1271164.1.2.3.0,Phases=3,Linecode=BT107_BT106_7_3_1,Length=0.028856000,Units=km
new line.1175824 bus1=BBT1271171.1.2.3.0,bus2=BBT1271178.1.2.3.0,Phases=3,Linecode=BT107_BT106_7_3_1,Length=0.029081000,Units=km
...